Version 4
SHEET 1 1096 680
WIRE 256 -144 144 -144
WIRE 400 -144 336 -144
WIRE 448 -144 400 -144
WIRE 608 -144 448 -144
WIRE 848 -144 672 -144
WIRE 1008 -144 848 -144
WIRE 848 -48 848 -144
WIRE 1008 -48 1008 -144
WIRE 256 -16 144 -16
WIRE 384 -16 336 -16
WIRE 448 -16 448 -144
WIRE 448 -16 384 -16
WIRE 448 48 448 -16
WIRE 848 96 848 16
WIRE 1008 96 1008 32
WIRE 448 176 448 128
WIRE -384 304 -384 272
WIRE -80 304 -80 272
WIRE -384 432 -384 384
WIRE -80 432 -80 384
FLAG 448 176 0
FLAG 848 96 0
FLAG 1008 96 0
FLAG 144 -16 modulante
FLAG 144 -144 portadora
FLAG 1008 -144 AM-DSB
FLAG -384 272 portadora
FLAG -80 272 modulante
FLAG -80 432 0
FLAG -384 432 0
FLAG 400 -144 portadora
FLAG 384 -16 modulante
SYMBOL res 432 32 R0
SYMATTR InstName R1
SYMATTR Value 10k
SYMBOL res 240 -128 R270
WINDOW 0 32 56 VTop 2
WINDOW 3 0 56 VBottom 2
SYMATTR InstName R2
SYMATTR Value 1k
SYMBOL res 240 0 R270
WINDOW 0 32 56 VTop 2
WINDOW 3 0 56 VBottom 2
SYMATTR InstName R3
SYMATTR Value 1k
SYMBOL diode 608 -128 R270
WINDOW 0 32 32 VTop 2
WINDOW 3 0 32 VBottom 2
SYMATTR InstName D1
SYMATTR Value 1N4148
SYMBOL cap 832 -48 R0
SYMATTR InstName C1
SYMATTR Value 220nF
SYMBOL ind 992 -64 R0
SYMATTR InstName L1
SYMATTR Value 33µH
SYMBOL Misc\\signal -384 288 R0
WINDOW 123 0 0 Left 2
WINDOW 39 0 0 Left 2
SYMATTR InstName V1
SYMATTR Value SINE(0 5 80K)
SYMBOL Misc\\signal -80 288 R0
WINDOW 123 0 0 Left 2
WINDOW 39 0 0 Left 2
SYMATTR InstName V2
SYMATTR Value SINE(0 2 3K)
TEXT -418 456 Left 2 !.tran 4m
